
     RDKit          3D

 24 27  0  0  0  0  0  0  0  0999 V2000
   -8.7010    6.0510   48.1650 N   0  0  0  0  0  0  0  0  0  0  0  0
   -8.1370   16.2340   46.9270 N   0  0  0  0  0  0  0  0  0  0  0  0
  -10.1600   13.4030   48.0710 C   0  0  0  0  0  0  0  0  0  0  0  0
   -8.8200   12.9420   47.9640 C   0  0  0  0  0  0  0  0  0  0  0  0
   -8.4890   11.6460   48.2880 C   0  0  0  0  0  0  0  0  0  0  0  0
   -9.5200   10.7820   48.7250 C   0  0  0  0  0  0  0  0  0  0  0  0
   -8.2020    9.1810   49.9520 C   0  0  0  0  0  0  0  0  0  0  0  0
   -8.8230    6.6950   49.5050 C   0  0  0  0  0  0  0  0  0  0  0  0
   -9.2730    4.4090   46.5380 C   0  0  0  0  0  0  0  0  0  0  0  0
   -8.6730   15.0400   47.3110 C   0  0  0  0  0  0  0  0  0  0  0  0
  -11.2140   15.1640   46.4820 C   0  0  0  0  0  0  0  0  0  0  0  0
  -10.1880   14.8350   47.6000 C   0  0  0  0  0  0  0  0  0  0  0  0
  -10.8650   15.8950   48.4890 C   0  0  0  0  0  0  0  0  0  0  0  0
  -12.0850   15.9010   47.5210 C   0  0  0  0  0  0  0  0  0  0  0  0
  -11.1910   12.5740   48.5270 C   0  0  0  0  0  0  0  0  0  0  0  0
   -7.9170   13.9500   47.5110 N   0  0  0  0  0  0  0  0  0  0  0  0
  -10.8800   11.2320   48.8630 C   0  0  0  0  0  0  0  0  0  0  0  0
  -11.8130   10.2830   49.3040 O   0  0  0  0  0  0  0  0  0  0  0  0
  -13.1830   10.6430   49.5050 C   0  0  0  0  0  0  0  0  0  0  0  0
   -9.1770    9.4480   48.9340 O   0  0  0  0  0  0  0  0  0  0  0  0
   -7.6940    7.7650   49.6400 C   0  0  0  0  0  0  0  0  0  0  0  0
   -9.8270    5.1970   47.7460 C   0  0  0  0  0  0  0  0  0  0  0  0
   -7.7450    4.6130   46.5550 C   0  0  0  0  0  0  0  0  0  0  0  0
   -7.4900    5.2010   47.9400 C   0  0  0  0  0  0  0  0  0  0  0  0
 13 14  1  0
 13 12  1  0
  2 10  1  0
 23  9  1  0
 23 24  1  0
  9 22  1  0
 10 16  2  0
 10 12  1  0
 14 11  1  0
 16  4  1  0
 12  3  1  0
 12 11  1  0
 24  1  1  0
  3  4  1  0
  3 15  2  0
  4  5  2  0
 22  1  1  0
  1  8  1  0
 15 17  1  0
  5  6  1  0
 17  6  2  0
 17 18  1  0
  6 20  1  0
  7 20  1  0
  7 21  1  0
 18 19  1  0
  8 21  1  0
M  END
$$$$
